<?xml version="1.0" encoding="UTF-8"?>

<!-- generated on mer. 18 juil. 2018 17:47:22 CEST by Eclipse SUMO netedit Version v0_32_0+2559-1aa53e4
<configuration>

    <input>
        <sumo-net-file value="/home/ali/Documents/Bordeaux/map.net.xml"/>
    </input>

    <output>
        <output-file value="/home/ali/Documents/Bordeaux/map.net.xml"/>
    </output>

    <processing>
        <no-turnarounds value="true"/>
        <offset.disable-normalization value="true"/>
        <lefthand value="false"/>
        <junctions.corner-detail value="5"/>
        <rectangular-lane-cut value="false"/>
        <walkingareas value="false"/>
    </processing>

</configuration>
-->

<additional>
    <poly id="163476040" type="building" color="255,230,230" fill="1" layer="-1.00" shape="1595.278814,1738.892082 1596.626409,1736.262303 1599.153441,1731.423509 1600.340459,1731.633891 1598.746555,1736.788259 1606.548226,1738.576509 1603.945024,1746.150272 1599.449858,1744.887978 1597.770556,1749.831962 1592.258182,1748.464477 1595.278814,1738.892082"/>
    <poly id="163476093" type="building" color="255,230,230" fill="1" layer="-1.00" shape="1683.623940,1672.411214 1686.656154,1666.520499 1687.330785,1665.468585 1695.731584,1669.150282 1692.699367,1675.040997 1692.109148,1675.987719 1691.688080,1676.829249 1688.548415,1675.461762 1688.884743,1674.620232 1686.593796,1673.673510 1683.623940,1672.411214"/>
    <poly id="163476095" type="building" color="255,230,230" fill="1" layer="-1.00" shape="1922.682359,1701.654393 1948.588898,1693.975431 1967.217782,1743.941258 1961.884085,1745.519125 1963.763098,1750.252727 1960.554776,1754.039607 1954.713626,1755.933048 1948.777256,1754.460372 1946.644347,1749.831962 1941.564545,1751.304638 1922.682359,1701.654393"/>
    <poly id="163476231" type="building" color="255,230,230" fill="1" layer="-1.00" shape="1793.866999,1725.427611 1788.102056,1724.586081 1787.601502,1727.110670 1779.886883,1726.058758 1782.130504,1711.857944 1784.673689,1712.173518 1786.957069,1710.700841 1792.128180,1711.331988 1793.575002,1713.330621 1795.863967,1713.646195 1793.866999,1725.427611"/>
    <poly id="163476309" type="building" color="255,230,230" fill="1" layer="-1.00" shape="1617.989562,1657.894807 1619.856154,1658.631147 1623.901279,1651.478134 1631.792669,1654.844258 1631.624506,1655.265023 1633.152137,1656.001363 1632.224936,1657.579233 1630.613224,1657.053276 1624.292962,1668.308751 1614.534327,1663.995906 1617.989562,1657.894807"/>
    <poly id="163476320" type="building" color="255,230,230" fill="1" layer="-1.00" shape="1589.135999,1698.603847 1594.736426,1701.023246 1595.832112,1699.129803 1602.959836,1702.180350 1598.072276,1710.911223 1599.175215,1711.331988 1597.405236,1714.382534 1590.361926,1711.226797 1591.794923,1708.807398 1585.006489,1705.862044 1589.135999,1698.603847"/>
    <poly id="163476361" type="building" color="255,230,230" fill="1" layer="-1.00" shape="1696.222582,1717.748653 1690.881989,1717.117506 1690.878698,1716.065593 1688.335512,1715.750020 1688.254392,1716.907123 1684.355037,1716.486358 1685.520989,1709.964502 1688.658015,1710.490458 1688.992038,1708.912590 1697.299191,1709.754120 1696.222582,1717.748653"/>
    <poly id="163476369" type="building" color="255,230,230" fill="1" layer="-1.00" shape="1705.060902,1671.674874 1700.933312,1679.564224 1697.878389,1678.196736 1698.384198,1677.355206 1695.668893,1676.198101 1692.699367,1675.040997 1695.731584,1669.150282 1696.405886,1667.993177 1697.500598,1665.784159 1701.741886,1667.151647 1700.309200,1669.676239 1703.974813,1671.222552 1705.060902,1671.674874"/>
    <poly id="163476465" type="building" color="255,230,230" fill="1" layer="-1.00" shape="1743.102011,1669.360665 1741.237069,1669.150282 1740.825535,1673.042362 1738.791442,1672.937170 1734.213828,1672.411214 1728.873387,1671.832661 1729.451604,1667.046455 1726.644982,1663.785524 1733.241565,1659.577869 1735.623499,1662.523227 1743.760863,1663.259567 1743.102011,1669.360665"/>
    <poly id="163476466" type="building" color="255,230,230" fill="1" layer="-1.00" shape="1569.229043,1727.847009 1573.356892,1720.062860 1579.126794,1722.482257 1578.874552,1723.113405 1581.674598,1724.270508 1577.883397,1731.318318 1576.872784,1733.316950 1572.799993,1731.633891 1573.052893,1731.213127 1573.895675,1729.740450 1572.029088,1729.004112 1569.229043,1727.847009"/>
    <poly id="163476483" type="building" color="255,230,230" fill="1" layer="-1.00" shape="1577.883397,1731.318318 1581.674598,1724.270508 1582.685541,1722.377066 1585.485587,1723.534169 1585.906978,1722.797831 1591.677207,1725.322420 1587.464281,1733.001377 1584.664238,1731.844274 1582.967131,1731.107935 1582.209089,1732.580612 1581.956188,1733.001377 1577.883397,1731.318318"/>
    <poly id="163476487" type="building" color="255,230,230" fill="1" layer="-1.00" shape="1540.804797,1689.241823 1543.666161,1682.930345 1554.353645,1686.191276 1551.577348,1692.607944 1548.531502,1699.540049 1548.295912,1700.076525 1547.956952,1700.076525 1546.188960,1703.758219 1541.862599,1702.285541 1545.984502,1692.607944 1541.319508,1691.240458 1541.907408,1689.557397 1540.804797,1689.241823"/>
    <poly id="163476494" type="building" color="255,230,230" fill="1" layer="-1.00" shape="1766.390942,1746.045081 1763.000035,1745.624316 1762.666992,1747.517757 1757.919918,1746.991801 1755.207258,1746.676228 1756.950306,1735.000009 1756.611346,1735.000009 1757.528035,1730.056024 1760.579658,1730.371597 1759.747708,1735.315583 1767.800954,1736.262303 1766.390942,1746.045081"/>
    <poly id="163476637" type="building" color="255,230,230" fill="1" layer="-1.00" shape="1720.450772,1742.468582 1719.179346,1742.363391 1710.363441,1741.416670 1710.777599,1738.366126 1712.218506,1738.471318 1712.465488,1736.157112 1711.109321,1736.051921 1711.691643,1732.580612 1711.691314,1732.475421 1719.744235,1733.316950 1718.915258,1739.207656 1720.949672,1739.418038 1720.450772,1742.468582"/>
    <poly id="163476773" type="building" color="255,230,230" fill="1" layer="-1.00" shape="1871.759278,1676.303293 1893.028403,1676.092910 1892.951861,1678.722693 1890.833357,1678.722693 1891.190353,1684.508215 1892.885155,1684.508215 1892.581937,1695.974065 1890.039735,1695.974065 1890.045638,1697.867508 1881.996316,1698.183082 1881.716186,1689.872971 1872.141539,1690.188545 1871.759278,1676.303293"/>
    <poly id="163476802" type="building" color="255,230,230" fill="1" layer="-1.00" shape="1570.024272,1657.158468 1571.297025,1657.684425 1574.245783,1652.214473 1572.803549,1651.688516 1574.319640,1648.743157 1587.300732,1653.792344 1585.279166,1657.684425 1583.752193,1657.158468 1581.647537,1661.576505 1583.004699,1661.997271 1580.224760,1667.256838 1567.497567,1662.102462 1570.024272,1657.158468"/>
    <poly id="163476808" type="building" color="255,230,230" fill="1" layer="-1.00" shape="1676.718624,1767.504069 1683.542713,1754.775945 1686.253727,1754.565563 1687.138977,1766.662541 1683.919525,1766.872923 1682.561715,1766.241776 1681.543192,1765.715821 1681.451869,1763.611999 1679.333704,1763.717190 1679.424699,1765.715821 1678.664016,1766.346967 1677.735171,1767.398878 1676.718624,1767.504069"/>
    <poly id="163477059" type="building" color="255,230,230" fill="1" layer="-1.00" shape="2094.341054,1721.009580 2098.172646,1726.900288 2108.665372,1722.061493 2111.732013,1727.215861 2101.578577,1732.159847 2106.772534,1740.154376 2100.004126,1743.625684 2099.663860,1743.204920 2097.294738,1744.362023 2096.869079,1743.730876 2095.515529,1744.467214 2092.023879,1738.892082 2095.831292,1736.998641 2087.909967,1723.954934 2094.341054,1721.009580"/>
    <poly id="163477280" type="building" color="255,230,230" fill="1" layer="-1.00" shape="2177.339554,1705.967235 2182.005148,1707.545104 2184.309763,1712.909857 2176.590269,1710.280076 2176.169505,1711.226797 2168.450009,1708.597016 2168.870772,1707.650295 2167.846388,1705.230896 2167.084380,1705.441279 2165.378160,1701.759585 2166.393735,1701.338820 2164.260225,1696.500022 2171.794913,1694.185814 2170.258434,1690.588272 2171.113493,1690.325293 2174.321783,1689.241823 2177.821897,1697.551934 2174.690104,1698.709038 2177.339554,1705.967235"/>
    <poly id="163477328" type="building" color="255,230,230" fill="1" layer="-1.00" shape="1603.022468,1722.166684 1604.207838,1721.851110 1604.796732,1720.483624 1604.539875,1719.642095 1608.501888,1713.015048 1608.756108,1713.015048 1610.703150,1712.383900 1613.758733,1713.961769 1614.442585,1715.855211 1612.083050,1720.062860 1610.902953,1722.061493 1613.194557,1723.218596 1612.436511,1724.691273 1610.743031,1725.112037 1609.469955,1724.480890 1608.879412,1725.322420 1606.339521,1726.058758 1603.878438,1724.901655 1602.938057,1722.271875 1603.022468,1722.166684"/>
    <poly id="163477361" type="building" color="255,230,230" fill="1" layer="-1.00" shape="1657.587192,1692.607944 1656.144635,1691.976797 1655.461116,1690.188545 1653.085429,1689.241823 1650.714353,1689.767780 1645.877909,1687.769145 1647.478749,1684.823789 1648.321868,1683.456302 1647.468538,1681.562858 1646.027297,1681.352476 1644.660585,1677.881162 1644.063451,1676.618867 1645.662645,1673.147553 1650.657704,1671.674874 1653.476196,1678.722693 1652.125294,1680.300563 1652.978623,1682.194006 1655.100090,1683.140728 1658.663457,1684.508215 1657.906394,1686.296467 1660.451890,1687.348380 1657.587192,1692.607944"/>
    <poly id="163477446" type="building" color="255,230,230" fill="1" layer="-1.00" shape="1595.278814,1738.892082 1596.117640,1736.157112 1596.626409,1736.262303 1595.278814,1738.892082"/>
    <poly id="163477476" type="building" color="255,230,230" fill="1" layer="-1.00" shape="1596.626409,1736.262303 1598.050833,1731.107935 1599.153441,1731.423509 1596.626409,1736.262303"/>
    <poly id="163477488" type="building" color="255,230,230" fill="1" layer="-1.00" shape="2006.350858,1656.842894 2003.896008,1657.684425 2000.926172,1656.422128 2000.508035,1658.210382 2002.798312,1658.946721 2004.419830,1662.628419 2003.494233,1664.732246 2004.936453,1665.258202 2005.777964,1663.364758 2008.994821,1662.312845 2011.811862,1668.939900 2000.129496,1672.726788 1993.984017,1658.525956 1991.764405,1653.266387 2018.684985,1644.640693 2025.372600,1642.431674 2033.738314,1662.102462 2016.721886,1667.362029 2015.621572,1667.782795 2012.804205,1661.050548 2021.099588,1658.105190 2023.729807,1659.157104 2024.233341,1657.579233 2021.603777,1656.737702 2020.152723,1653.371578 2021.248458,1651.478134 2019.721825,1651.057368 2019.134204,1652.845621 2007.536240,1656.527320 2006.512157,1654.213109 2005.411516,1654.528684 2006.350858,1656.842894"/>
    <poly id="163477493" type="building" color="255,230,230" fill="1" layer="-1.00" shape="2056.983226,1697.762317 2054.933771,1692.713136 2050.747829,1681.878432 2059.044190,1679.248650 2062.032978,1686.612041 2060.855116,1689.347015 2062.551879,1689.978162 2063.644348,1687.032806 2067.284250,1685.770511 2069.915443,1687.137997 2070.756960,1685.244554 2068.465709,1684.192641 2065.221395,1676.408484 2067.422024,1675.566953 2066.739200,1673.989084 2064.538570,1674.830614 2060.099717,1664.416672 2061.110062,1662.312845 2059.413296,1661.681696 2058.741258,1663.575141 2053.915970,1665.153011 2051.625368,1664.311480 2050.868265,1666.099733 2053.753355,1667.362029 2057.254185,1675.882527 2049.295803,1678.196736 2045.964123,1669.571048 2045.622547,1668.729517 2042.974345,1661.892079 2064.816404,1655.159832 2077.366690,1685.244554 2079.671340,1690.609310 2056.983226,1697.762317"/>
    <poly id="163477499" type="building" color="255,230,230" fill="1" layer="-1.00" shape="1965.078828,1682.930345 1969.432665,1693.239092 1968.252853,1695.342918 1969.780794,1696.184448 1970.960606,1694.080622 1975.700811,1692.397562 1977.737193,1693.239092 1978.326117,1691.871605 1975.864725,1690.609310 1972.620044,1682.719963 1980.154713,1680.405754 1983.827348,1689.662588 1986.475569,1696.500022 1978.178900,1699.024612 1965.649489,1702.916689 1963.087638,1696.605213 1951.134277,1667.782795 1972.213960,1661.155740 1975.287200,1668.413943 1978.617932,1676.724058 1971.083589,1679.143458 1967.839231,1671.359300 1969.102475,1668.834708 1967.489792,1667.993177 1965.887915,1670.622961 1962.247689,1671.780066 1959.617141,1670.622961 1958.860702,1672.621596 1961.066566,1673.463127 1964.481062,1681.457667 1962.280438,1682.299198 1962.877549,1683.561493 1965.078828,1682.930345"/>
    <poly id="163477513" type="building" color="255,230,230" fill="1" layer="-1.00" shape="2020.746860,1735.420774 2014.820631,1737.209024 2003.984399,1740.575141 2001.251779,1733.842906 2010.563350,1730.687171 2013.364348,1732.159847 2013.868206,1730.687171 2010.728576,1729.319685 2009.448643,1726.479523 2010.627803,1724.165317 2008.591100,1723.218596 2007.580111,1725.112037 1998.521775,1727.952200 1997.584727,1726.374332 1996.314610,1726.689905 1996.998093,1728.478156 1985.569335,1732.054656 1982.940107,1731.318318 1982.183341,1733.211759 1983.964842,1733.842906 1985.672407,1737.945362 1984.999726,1739.628420 1986.951362,1740.469950 1987.706491,1738.050553 1997.272932,1735.105200 1999.920814,1741.837435 1989.678094,1745.308743 1981.889560,1747.728139 1976.594109,1734.368862 1974.032267,1728.057391 1981.397110,1725.637993 1994.264814,1721.535537 2006.708823,1717.433079 2012.973364,1715.434446 2015.450454,1721.745919 2020.746860,1735.420774"/>
    <poly id="163477579" type="building" color="255,230,230" fill="1" layer="-1.00" shape="2100.802789,1673.357936 2105.966387,1671.569683 2107.246962,1674.620232 2102.252845,1676.408484 2100.802789,1673.357936"/>
    <poly id="163477586" type="building" color="255,230,230" fill="1" layer="-1.00" shape="1710.053291,1723.534169 1711.409788,1723.744552 1710.659630,1727.741817 1709.388203,1727.636626 1710.053291,1723.534169"/>
    <poly id="163477689" type="building" color="255,230,230" fill="1" layer="-1.00" shape="1541.982319,1713.435813 1553.869672,1721.009580 1553.194062,1721.745919 1541.306710,1714.172151 1541.982319,1713.435813"/>
    <poly id="163477721" type="building" color="255,230,230" fill="1" layer="-1.00" shape="1574.533995,1690.083354 1573.430395,1689.452206 1576.211977,1684.718598 1577.485058,1685.349745 1574.533995,1690.083354"/>
    <poly id="163477728" type="building" color="255,230,230" fill="1" layer="-1.00" shape="1674.378701,1669.676239 1677.263818,1670.938535 1676.758010,1671.780066 1673.873222,1670.622961 1674.378701,1669.676239"/>
    <poly id="163477954" type="building" color="255,230,230" fill="1" layer="-1.00" shape="1557.639045,1679.984989 1562.106521,1672.411214 1563.294533,1672.937170 1558.996536,1680.510945 1557.639045,1679.984989"/>
    <poly id="163477970" type="building" color="255,230,230" fill="1" layer="-1.00" shape="1895.013211,1741.942626 1894.824385,1735.736347 1897.790281,1735.736347 1897.894366,1741.942626 1895.013211,1741.942626"/>
    <poly id="163478028" type="building" color="255,230,230" fill="1" layer="-1.00" shape="1836.447145,1738.471318 1833.905277,1738.576509 1833.813972,1736.472685 1836.355775,1736.346456 1836.447145,1738.471318"/>
    <poly id="163478107" type="building" color="255,230,230" fill="1" layer="-1.00" shape="2100.620763,1696.605213 2103.076265,1695.974065 2105.385152,1702.706306 2103.014064,1703.232262 2100.620763,1696.605213"/>
    <poly id="163478168" type="building" color="255,230,230" fill="1" layer="-1.00" shape="1662.669292,1691.871605 1666.827154,1693.659857 1665.647708,1695.868874 1661.405436,1694.185814 1662.669292,1691.871605"/>
    <poly id="163478205" type="building" color="255,230,230" fill="1" layer="-1.00" shape="1680.063724,1699.129803 1684.221253,1700.812863 1682.787914,1703.127071 1678.799865,1701.444011 1680.063724,1699.129803"/>
    <poly id="163478247" type="building" color="255,230,230" fill="1" layer="-1.00" shape="1818.980933,1681.036902 1826.442990,1682.614771 1825.605766,1685.875702 1818.228122,1684.192641 1818.980933,1681.036902"/>
    <poly id="163478502" type="building" color="255,230,230" fill="1" layer="-1.00" shape="1736.236389,1750.147535 1732.930221,1749.726771 1733.510245,1745.519125 1736.816085,1745.834699 1736.236389,1750.147535"/>
    <poly id="163478528" type="building" color="255,230,230" fill="1" layer="-1.00" shape="1996.998093,1728.478156 1996.314610,1726.689905 1997.584727,1726.374332 1998.521775,1727.952200 1996.998093,1728.478156"/>
    <poly id="163478545" type="building" color="255,230,230" fill="1" layer="-1.00" shape="1498.569634,1759.193972 1510.516950,1758.878399 1510.870437,1763.506808 1498.753975,1763.927572 1498.569634,1759.193972"/>
    <poly id="163478573" type="building" color="255,230,230" fill="1" layer="-1.00" shape="1790.967081,1665.153011 1800.207049,1666.204925 1797.795898,1681.036902 1788.471198,1679.984989 1790.967081,1665.153011"/>
    <poly id="163478576" type="building" color="255,230,230" fill="1" layer="-1.00" shape="1726.328503,1698.077891 1729.041172,1698.393464 1728.459503,1702.075159 1725.831904,1701.864776 1726.328503,1698.077891"/>
    <poly id="163478884" type="building" color="255,230,230" fill="1" layer="-1.00" shape="1715.677245,1706.388000 1718.474652,1706.703574 1718.061478,1710.069693 1715.264729,1709.964502 1715.677245,1706.388000"/>
    <poly id="163478957" type="building" color="255,230,230" fill="1" layer="-1.00" shape="1650.714353,1689.767780 1653.085429,1689.241823 1655.461116,1690.188545 1656.144635,1691.976797 1650.714353,1689.767780"/>
    <poly id="163479002" type="building" color="255,230,230" fill="1" layer="-1.00" shape="1858.587960,1718.905756 1862.655149,1718.800565 1862.934304,1726.795097 1859.036924,1727.005479 1858.587960,1718.905756"/>
    <poly id="163479034" type="building" color="255,230,230" fill="1" layer="-1.00" shape="1713.246432,1714.908490 1714.602600,1715.013681 1714.022580,1719.221330 1712.581342,1719.010947 1713.246432,1714.908490"/>
    <poly id="163479094" type="building" color="255,230,230" fill="1" layer="-1.00" shape="1637.925620,1773.184388 1644.233005,1757.826488 1657.295114,1761.718559 1652.838160,1772.658433 1637.925620,1773.184388"/>
    <poly id="163479104" type="building" color="255,230,230" fill="1" layer="-1.00" shape="1718.248263,1688.505484 1721.045673,1688.821058 1720.632499,1692.187179 1717.835089,1691.871605 1718.248263,1688.505484"/>
    <poly id="163479168" type="building" color="255,230,230" fill="1" layer="-1.00" shape="1669.690084,1714.908490 1667.667848,1718.590183 1666.310363,1718.064227 1668.247529,1714.277343 1669.690084,1714.908490"/>
    <poly id="163479325" type="building" color="255,230,230" fill="1" layer="-1.00" shape="1659.013727,1742.258199 1650.104186,1738.471318 1654.570699,1730.581979 1663.310104,1734.158480 1659.013727,1742.258199"/>
    <poly id="163479446" type="building" color="255,230,230" fill="1" layer="-1.00" shape="1680.063724,1699.129803 1678.799865,1701.444011 1675.151434,1699.971333 1676.245154,1697.446743 1680.063724,1699.129803"/>
    <poly id="163479484" type="building" color="255,230,230" fill="1" layer="-1.00" shape="2111.267133,1659.367487 2123.457646,1655.475406 2127.130210,1664.732246 2115.109183,1668.624326 2111.267133,1659.367487"/>
    <poly id="163479676" type="building" color="255,230,230" fill="1" layer="-1.00" shape="2125.211381,1701.759585 2132.236316,1699.024612 2137.097185,1708.912590 2130.156994,1711.647562 2125.211381,1701.759585"/>
    <poly id="163479828" type="building" color="255,230,230" fill="1" layer="-1.00" shape="2147.176024,1707.229530 2138.118309,1710.280076 2133.335978,1698.393464 2142.393697,1695.342918 2147.176024,1707.229530"/>
    <poly id="163479833" type="building" color="255,230,230" fill="1" layer="-1.00" shape="1662.932289,1721.745919 1665.562520,1722.797831 1663.624697,1726.374332 1661.163617,1725.217229 1662.932289,1721.745919"/>
    <poly id="163479990" type="building" color="255,230,230" fill="1" layer="-1.00" shape="1711.109321,1736.051921 1712.465488,1736.157112 1712.218506,1738.471318 1710.777599,1738.366126 1711.109321,1736.051921"/>
    <poly id="163479998" type="building" color="255,230,230" fill="1" layer="-1.00" shape="2074.323707,1742.258199 2061.033608,1746.781419 2058.813700,1741.416670 2072.187888,1736.683068 2074.323707,1742.258199"/>
    <poly id="163480130" type="building" color="255,230,230" fill="1" layer="-1.00" shape="1766.390942,1746.045081 1766.057899,1747.938521 1762.666992,1747.517757 1763.000035,1745.624316 1766.390942,1746.045081"/>
    <poly id="163480161" type="building" color="255,230,230" fill="1" layer="-1.00" shape="1524.201647,1772.132477 1530.897073,1772.448050 1530.582210,1780.126999 1523.719288,1780.442572 1524.201647,1772.132477"/>
    <poly id="163480167" type="building" color="255,230,230" fill="1" layer="-1.00" shape="1498.470032,1754.460372 1510.248202,1754.249990 1510.516950,1758.878399 1498.569634,1759.193972 1498.470032,1754.460372"/>
    <poly id="163480312" type="building" color="255,230,230" fill="1" layer="-1.00" shape="1690.797249,1717.117506 1688.254392,1716.907123 1688.335512,1715.750020 1690.878698,1716.065593 1690.797249,1717.117506"/>
    <poly id="163480399" type="building" color="255,230,230" fill="1" layer="-1.00" shape="2054.933771,1692.713136 2050.409196,1681.983624 2050.747829,1681.878432 2054.933771,1692.713136"/>
    <poly id="163480613" type="building" color="255,230,230" fill="1" layer="-1.00" shape="1673.210714,1756.774576 1673.121365,1755.301901 1676.510298,1755.091519 1676.769126,1756.564194 1673.210714,1756.774576"/>
    <poly id="163480690" type="building" color="255,230,230" fill="1" layer="-1.00" shape="1666.908691,1746.781419 1674.035066,1749.411197 1670.750627,1755.933048 1663.709652,1753.513652 1666.908691,1746.781419"/>
    <poly id="163480772" type="building" color="255,230,230" fill="1" layer="-1.00" shape="1808.333571,1663.469950 1812.487483,1663.995906 1810.820593,1672.937170 1806.751094,1672.306022 1808.333571,1663.469950"/>
    <poly id="163480914" type="building" color="255,230,230" fill="1" layer="-1.00" shape="1740.312449,1752.882505 1740.476997,1751.304638 1743.952315,1751.620211 1743.703356,1753.303269 1740.312449,1752.882505"/>
    <poly id="163480943" type="building" color="255,230,230" fill="1" layer="-1.00" shape="1668.845854,1742.994538 1675.719328,1746.045081 1674.035066,1749.411197 1666.908691,1746.781419 1668.845854,1742.994538"/>
    <poly id="163480949" type="building" color="255,230,230" fill="1" layer="-1.00" shape="1517.364696,1672.726788 1518.890019,1672.726788 1519.070064,1676.092910 1517.460001,1676.092910 1517.364696,1672.726788"/>
    <poly id="163480987" type="building" color="255,230,230" fill="1" layer="-1.00" shape="1776.378043,1715.013681 1772.987129,1714.592916 1774.150814,1707.334721 1777.541729,1707.755486 1776.378043,1715.013681"/>
    <poly id="163481258" type="building" color="255,230,230" fill="1" layer="-1.00" shape="1708.752726,1741.206288 1708.172378,1745.308743 1706.815883,1745.098361 1707.396559,1741.101097 1708.752726,1741.206288"/>
    <poly id="163481266" type="building" color="255,230,230" fill="1" layer="-1.00" shape="1894.943883,1746.886610 1904.603567,1746.676228 1904.882047,1754.460372 1895.052887,1754.670754 1894.943883,1746.886610"/>
    <poly id="163481538" type="building" color="255,230,230" fill="1" layer="-1.00" shape="1781.738643,1694.922152 1785.298712,1695.237726 1784.385956,1701.444011 1780.741149,1701.128437 1781.738643,1694.922152"/>
    <poly id="163482059" type="building" color="255,230,230" fill="1" layer="-1.00" shape="1700.309200,1669.676239 1701.741886,1667.151647 1705.305581,1668.624326 1703.974813,1671.222552 1700.309200,1669.676239"/>
    <poly id="163482117" type="building" color="255,230,230" fill="1" layer="-1.00" shape="1715.677245,1706.388000 1716.175816,1703.232262 1718.888155,1703.442645 1718.474652,1706.703574 1715.677245,1706.388000"/>
    <poly id="163482142" type="building" color="255,230,230" fill="1" layer="-1.00" shape="2108.283115,1680.826519 2106.148606,1675.672145 2110.804743,1674.199466 2112.938924,1679.248650 2108.283115,1680.826519"/>
    <poly id="163482554" type="building" color="255,230,230" fill="1" layer="-1.00" shape="1825.580415,1732.054656 1832.358622,1731.739082 1832.457478,1736.262303 1825.763684,1736.472685 1825.580415,1732.054656"/>
    <poly id="163482573" type="building" color="255,230,230" fill="1" layer="-1.00" shape="1731.698919,1681.142093 1731.032508,1684.823789 1728.235426,1684.613406 1728.731698,1680.721328 1731.698919,1681.142093"/>
    <poly id="163482599" type="building" color="255,230,230" fill="1" layer="-1.00" shape="2013.984353,1686.296467 2017.455426,1685.244554 2018.566208,1688.189910 2015.349028,1689.136632 2013.984353,1686.296467"/>
    <poly id="163482729" type="building" color="255,230,230" fill="1" layer="-1.00" shape="1895.013211,1741.942626 1892.047644,1742.047817 1891.858818,1735.841538 1894.824385,1735.736347 1895.013211,1741.942626"/>
    <poly id="163482791" type="building" color="255,230,230" fill="1" layer="-1.00" shape="1726.328503,1698.077891 1726.825761,1694.501387 1729.453690,1694.816961 1729.041172,1698.393464 1726.328503,1698.077891"/>
    <poly id="163482979" type="building" color="255,230,230" fill="1" layer="-1.00" shape="1834.941851,1744.887978 1834.763837,1742.153008 1837.644335,1741.942626 1837.822021,1744.572405 1834.941851,1744.887978"/>
    <poly id="163483165" type="building" color="255,230,230" fill="1" layer="-1.00" shape="1538.839679,1711.121606 1543.741399,1706.913956 1545.975440,1708.628573 1541.982319,1713.435813 1538.839679,1711.121606"/>
    <poly id="163483261" type="building" color="255,230,230" fill="1" layer="-1.00" shape="1556.721138,1711.542371 1555.792297,1712.594283 1547.131990,1707.229530 1548.060500,1706.072426 1556.721138,1711.542371"/>
    <poly id="163483454" type="building" color="255,230,230" fill="1" layer="-1.00" shape="1683.118461,1673.357936 1683.623940,1672.411214 1686.593796,1673.673510 1686.087659,1674.409849 1683.118461,1673.357936"/>
    <poly id="163483563" type="building" color="255,230,230" fill="1" layer="-1.00" shape="1777.037929,1736.367494 1782.548321,1737.103832 1782.218233,1739.943994 1776.453951,1739.312847 1777.037929,1736.367494"/>
    <poly id="163483644" type="building" color="255,230,230" fill="1" layer="-1.00" shape="1567.350977,1777.497222 1567.336463,1772.868815 1573.353312,1772.974006 1573.366835,1777.286840 1567.350977,1777.497222"/>
    <poly id="163483650" type="building" color="255,230,230" fill="1" layer="-1.00" shape="1722.176446,1671.043726 1723.532947,1671.254109 1722.867195,1675.146188 1721.680504,1675.040997 1722.176446,1671.043726"/>
    <poly id="163483707" type="building" color="255,230,230" fill="1" layer="-1.00" shape="1646.027297,1681.352476 1647.468538,1681.562858 1648.321868,1683.456302 1647.478749,1684.823789 1646.027297,1681.352476"/>
    <poly id="163483743" type="building" color="255,230,230" fill="1" layer="-1.00" shape="1666.270851,1705.441279 1662.452611,1703.863410 1663.462906,1701.759585 1667.450626,1703.337454 1666.270851,1705.441279"/>
    <poly id="163483744" type="building" color="255,230,230" fill="1" layer="-1.00" shape="1965.078828,1682.930345 1962.877549,1683.561493 1962.280438,1682.299198 1964.481062,1681.457667 1965.078828,1682.930345"/>
    <poly id="163483745" type="building" color="255,230,230" fill="1" layer="-1.00" shape="1906.807458,1746.886610 1918.584982,1746.465845 1918.862800,1754.039607 1907.000541,1754.460372 1906.807458,1746.886610"/>
    <poly id="163483827" type="building" color="255,230,230" fill="1" layer="-1.00" shape="1594.294238,1776.234929 1594.204552,1774.657063 1597.762960,1774.446681 1597.937385,1776.024547 1594.294238,1776.234929"/>
    <poly id="163483918" type="building" color="255,230,230" fill="1" layer="-1.00" shape="1548.531502,1699.540049 1551.577348,1692.607944 1554.037780,1693.554666 1551.092664,1700.181716 1548.531502,1699.540049"/>
    <poly id="163484025" type="building" color="255,230,230" fill="1" layer="-1.00" shape="1582.209089,1732.580612 1582.967131,1731.107935 1584.664238,1731.844274 1583.906195,1733.316950 1582.209089,1732.580612"/>
    <poly id="163484183" type="building" color="255,230,230" fill="1" layer="-1.00" shape="1517.741293,1684.718598 1517.648300,1682.088815 1519.088882,1682.088815 1519.182206,1684.823789 1517.741293,1684.718598"/>
    <poly id="163484771" type="building" color="255,230,230" fill="1" layer="-1.00" shape="1603.022468,1722.166684 1604.539875,1719.642095 1604.796732,1720.483624 1604.207838,1721.851110 1603.022468,1722.166684"/>
    <poly id="163484846" type="building" color="255,230,230" fill="1" layer="-1.00" shape="2094.341054,1721.009580 2105.087675,1716.065593 2108.665372,1722.061493 2098.172646,1726.900288 2094.341054,1721.009580"/>
    <poly id="163484848" type="building" color="255,230,230" fill="1" layer="-1.00" shape="1874.098324,1719.852477 1873.915395,1715.539637 1877.982258,1715.329255 1878.165186,1719.642095 1874.098324,1719.852477"/>
    <poly id="163484861" type="building" color="255,230,230" fill="1" layer="-1.00" shape="1718.248263,1688.505484 1718.662095,1685.349745 1721.544246,1685.665319 1721.045673,1688.821058 1718.248263,1688.505484"/>
    <poly id="163484937" type="building" color="255,230,230" fill="1" layer="-1.00" shape="1571.271046,1730.476788 1572.029088,1729.004112 1573.895675,1729.740450 1573.052893,1731.213127 1571.271046,1730.476788"/>
    <poly id="163485115" type="building" color="255,230,230" fill="1" layer="-1.00" shape="2064.538570,1674.830614 2066.739200,1673.989084 2067.422024,1675.566953 2065.221395,1676.408484 2064.538570,1674.830614"/>
    <poly id="163485125" type="building" color="255,230,230" fill="1" layer="-1.00" shape="1692.699367,1675.040997 1695.668893,1676.198101 1695.332894,1677.144823 1692.109148,1675.987719 1692.699367,1675.040997"/>